src/test/resources/pst_special/error/20260620_1130_FO2_IT0.uct
##C 2007.05.01
##N
##ZIT
IMFTV121 MONFALC.CE g 0 0 853.70     9.4     4.8     3.4     6.6     1.3     8.4     9.4     3.0
IPDRV121 PADRICIANO g 0 0 775.43    79.4   -40.3     6.0     5.4     0.3     7.8     4.9     9.1
IPDRV122 PADRICIANO g 0 0 385.47     0.2     4.5     3.6     6.7     2.8     7.2     9.2     0.3
IRDPVA21 REDIPUGLIA g 0 0 705.13    97.7    02.5     1.9     3.1     2.0     2.9     1.3     6.5
##ZXX
XPA_DI21 DIVJ    211  0 0 559.19  -756.9     4.3     8.8     6.2     7.7     1.3     9.2     7.7
##L
IMFTV121 IPDRV121 1 0  1.943 25.038   351.11    900 XXXXXXXXXXXX
IMFTV121 IRDPVA21 1 0  8.323  4.333    34.77    810 XXXXXXXXXXXX
IRDPVA21 IPDRV121 1 0  6.426 12.285   255.56    855 XXXXXXXXXXXX
XPA_DI21 IPDRV122 1 0  0.085  3.212    09.94    960 XXXXXXXXXXXX
##T
IPDRV121 IPDRV122 1 0 704.0 988.2  370.  7.359 86.621   -2.485  9.143    928 XXXXXXXXXXXX
##R
IPDRV121 IPDRV122 1                    3.604  67.3 16  -6    0. SYMM
